test/test_files/matlab_test_files/d_003.m
% File generated by PSAT from IEEE/CDF data file.
% ------------------------------------------------------------------------------
% Author:   Federico Milano
% E-mail:   fmilano@thunderbox.uwaterloo.ca
% Web-site: http://thunderbox.uwaterloo.ca/~fmilano
% ------------------------------------------------------------------------------
%  01/04/06 PSAT ARCHIVE         100.00 2006 W 3-Bus 3-Line System


Bus.con = [ ...
   1   138.00  1.02000  0.00000  1  1;
   2   138.00  1.00000  0.00000  1  1;
   3   138.00  1.00000  0.00000  1  1];

SW.con = [ ...
   1 100.00   138.00  1.02000  0.00000  1.50000 -1.50000 1.1 0.9  1.50000 1];

PV.con = [ ...
   2 100.00   138.00  1.00000  1.00000  1.50000 -1.50000 1.1 0.9 1;
   3 100.00   138.00  1.00000  1.00000  1.50000 -1.50000 1.1 0.9 1];

PQ.con = [ ...
   1 100.00   138.00  1.50000  0.80000 1.1 0.9 1;
   2 100.00   138.00  1.50000  0.70000 1.1 0.9 1;
   3 100.00   138.00  0.50000  0.30000 1.1 0.9 1];

Shunt.con = [ ...
   2 100.00   138.00 60  0.00000  0.80000;
   3 100.00   138.00 60  0.00000  0.50000];

Line.con = [ ...
   1    3   100.00   138.00 60 0   0.0000  0.01000  0.12000  0.00000  1.00000  0.00000 0    0.000    0.000;
   1    2   100.00   138.00 60 0   0.0000  0.01000  0.12000  0.00000  1.00000  0.00000 0    0.000    0.000;
   2    3   100.00   138.00 60 0   0.0000  0.01000  0.12000  0.00000  1.00000  0.00000 0    0.000    0.000];

Areas.con = [ ...
   1    1 100.00  0.00000  9.99990];

Varname.bus = { ...
  ' Bus1'; ' Bus2'; ' Bus3'};
